# ================================================================
# Orca input file for QMC test
# ================================================================
! RHF cc-pVTZ VeryTightSCF
! PAL2

* xyz 0 1
  N      -0.6425116454     0.0000000000    -0.6312616617
  N       0.7356992061     0.4245782221    -0.3080462814
  N      -0.3073581092     0.4245782221     0.7288873892
  N       0.2141705485    -0.8491564442     0.2104205539
*
