# ================================================================
# Orca input file for CASINO with g-orbitals
# ================================================================
! RHF STO-3G VeryTightSCF

%basis
newgto C
G   3
  1 60.0434382795337167843  0.11407461847341315449
  2 22.1675054852210094114  0.10668188273112432880
  3 4.80239596988874257441 15.21685292468813489609
G   1
  1 1.48339076950115698968  1.0
G   1
  1 0.46178952710355971802  1.0
G   1
  1 0.30249228070031443967  1.0
G   1
  1 0.09028412219748024402  1.0
end
newgto H
G   3
  1 10.1787046997423421309  0.00059884370424923467
  2 2.39526407180282360689 -0.09809424339784892573
  3 1.04864968631957502892  0.94847150361269593480
G   1
  1 0.72018956988162897143  1.0
G   1
  1 0.33281514997841096614  1.0
G   1
  1 0.12166473257337672303  1.0
end
end

* xyz 0 1
  C       0.000000      0.000000      0.000000
  H       0.629118      0.629118      0.629118
  H      -0.629118     -0.629118      0.629118
  H       0.629118     -0.629118     -0.629118
  H      -0.629118      0.629118     -0.629118
*
