# ================================================================
# Orca input file for QMC test
# ================================================================
! RHF def2-QZVP VeryTightSCF
! PAL2

* xyz 0 1
 N       0.5200      0.5300      0.5100
 N      -0.5200     -0.5200      0.5200
 N      -0.5200      0.5200     -0.5200
 N       0.5200     -0.5200     -0.5200
*
