# ================================================================
# Orca input file for QMC test
# ================================================================
! RHF def2-SVP VeryTightSCF Bohrs
! PAL2

* xyz 0 1
 N       -1.2141710420        0.0000000000        1.192911653
 N        1.3902700099       -0.8023365584        0.582123105
 N       -0.5808226486       -0.8023365584       -1.377397541
 N        0.4047236807        1.6046731167       -0.397637217
*
