# ================================================================
# Orca input file for CASINO with d-orbitals
# ================================================================
! RHF STO-3G VeryTightSCF

%basis
newgto C
D   3
  1 46.1353741080831021977  0.06678829454430918743
  2 20.2682182253994397729  0.23122499388298942708
  3 6.09459166525985575420  5.07995919900226523237
D   1
  1 1.76930448839024293283  1.0
D   1
  1 0.48622668729967585903  1.0
D   1
  1 0.33390123157489603881  1.0
D   1
  1 0.19249575927525763201  1.0
end
newgto H
D   3
  1 3.13248426462993979154  0.00645458627451019049
  2 1.51538934021491644704 -0.07085476853267763969
  3 0.90028999344114131523  0.22897857323582812477
D   1
  1 0.50616845104080927617  1.0
D   1
  1 0.35861735452268052581  1.0
D   1
  1 0.09480033078848178684  1.0
end
end

* xyz 0 1
  C       0.000000      0.000000      0.000000
  H       0.629118      0.629118      0.629118
  H      -0.629118     -0.629118      0.629118
  H       0.629118     -0.629118     -0.629118
  H      -0.629118      0.629118     -0.629118
*
